di 1m
dv 1m
dt 1m
V1 1 0 12 0 0 0 
R1 1 0 2
R2 1 2 2
H1 2 0 1 2 2 
* H is a CCVS between node 2 and gnd with the current that goes from node 1 to 2
* and with a gain of 2
R3 2 0 2
.tran 20m