di 100u
dv 100u
dt 10u
V1 13 0 10 0 0 0
R1 14 8 175
R2 8 2 30
R3 2 0 20
R4 8 0 50
R5 9 3 2
R6 15 9 1
R7 15 9 1
R8 13 14 5
R9 14 15 5
I1 0 3 1
.tran 10m