di 100u
dv 100u
dt 0.01u
Vin 1 0 sin 0 1 1Meg 1ns
L1 1 2 10u
C1 2 3 1u
L3 3 0 10u
C3 3 0 1u
L2 3 4 10u
C2 4 5 1u
R1 5 0 100k
.tran 10u