di 100u
dv 100u
dt 10u
Vin 1 0 0 1 1k -1.5707
* sine voltage source between node 1 and gnd with freq 1k and peak value of 1V
L1 1 2 10u
C1 2 3 1u
L3 3 0 10u
C3 3 0 1u
L2 3 4 10u
C2 4 5 1u
R1 5 0 100k
.tran 1m