di 0.001
dv 0.001
dt 10u
I1 1 0 10m 0 0 0
C 1 0 1u
R 1 0 1k
.tran 20m