di 10u
dv 0.001
dt 0.01u
I1 1 0 3m 0 0 0
R1 1 2 4k
R2 2 3 4k
R3 1 3 1k
R4 2 0 1k
R5 3 0 2k
.tran 5m
