di 100u
dv 100u
dt 10u
I1 1 0 10mA
L1 1 0 10u
C1 1 0 1u
R1 1 0 1K
.tran 5ms