di 100u
dv 100u
dt 0.1u
V1 1 0 1V
R1 1 2 0.1
L1 2 3 1u
C1 3 0 25.33n
.tran 50u